16

C         -1.47518        0.24710       -0.42003
C         -0.99655       -0.92199        0.38607
C          0.57849        1.24944        0.33427
H         -0.94177       -0.63797        1.44078
C         -0.68373        1.30767       -0.46829
H          0.30981        1.23627        1.39626
H          1.81247        0.11211       -0.99396
C          1.35727       -0.05136       -0.02135
H         -1.68957       -1.76003        0.30545
H         -0.89534        2.17486       -1.07574
H          2.18380       -0.23243        0.67386
C          0.43371       -1.28716       -0.09441
H         -2.40206        0.18142       -0.97100
H          1.18563        2.14155        0.16649
H          0.35647       -1.63741       -1.12451
H          0.86607       -2.12202        0.46792
