19

  Cl  1.47700326863825     -1.72048947038917     -2.10938010149754
  Ru  1.88889210733770     -1.41131711259288      0.17105812699196
  Cl  2.30605682321098     -1.38708272827404      2.53419048761810
  C   1.47909030620422      0.47304699254016      0.35427366897020
  C   0.42279383965908      1.11441819687449     -0.49708917877154
  P   0.81612518917756     -3.36664152193346      0.88408226334245
  H   0.43402797235058      0.73793879821703     -1.52801680366843
  H   0.55076206809321      2.21220445997165     -0.49883933363797
  H   -0.56776984638799      0.91218677792674     -0.05943821558084
  H   0.22157863957459     -4.27246294831731     -0.03416545467612
  H   -0.28375464526609     -3.09810054157335      1.73175759161824
  H   1.58717359134013     -4.23383158800017      1.68746526026754
  H   1.49358997282940      0.82991411031731      1.39373870132430
  C   2.96293259242435      0.43692984478682     -0.23908742729551
  C   3.74419940855886     -0.90009094081709     -0.08881143892278
  H   2.94476538854638      0.76459096503584     -1.28568429263077
  H   3.48028406874658      1.13288463286422      0.43517473976762
  H   4.18698368579630     -1.24746706948399     -1.03080282173645
  H   4.39650424916586     -0.95323025715279      0.79101723851755