15

C   -0.06697  -1.92539  0.54831  
Mn  0.37548   0.17840   0.79157  
C   1.15759   -0.48092  2.31231  
O   1.62308   -0.96033  3.23639  
C   -0.51539  0.36419   -0.80049 
O   -1.07754  0.41411   -1.79121 
C   1.93329   -0.13979  -0.13032 
O   2.90627   -0.33965  -0.68930 
C   0.76092   1.92220   1.05123  
O   0.99838   3.02703   1.22772  
C   -1.22847  0.28592   1.67690  
O   -2.22841  0.32164   2.22257  
H   -0.80614  -2.25624  1.29037  
H   -0.47623  -2.13156  -0.45072 
H   0.83948   -2.53352  0.67694  
