9

C   1.04381   0.23534   -0.29977 
C   -0.08764  -0.40312  0.43477  
C   -1.36696  -0.03512  0.35166  
H   1.57486   -0.49899  -0.92897 
H   0.69784   1.05397   -0.94781 
H   1.79153   0.64394   0.40078  
H   0.17440   -1.24481  1.08920  
H   -1.68074  0.79746   -0.28688 
H   -2.14709  -0.54868  0.91862  
