23
Generated by autodE on: 2022-01-24
O     0.38025   1.55157  -2.53382
C     0.75040   0.85165  -1.61553
C     2.06647   1.08518  -0.98109
C     2.49646   0.40398   0.09432
C    -0.11798  -0.26819  -1.09125
C    -1.52506   0.24759  -0.63380
C    -1.99526  -0.95649   0.19237
C    -0.80597  -0.89481   1.15866
C    -0.83308   0.57071   1.53859
C    -1.26234   1.25356   0.46698
C     0.37814  -1.05476   0.14486
C     1.70021  -0.65263   0.75673
O     2.10442  -1.17846   1.77176
H     2.66402   1.88056  -1.43625
H     3.46292   0.61509   0.56150
H    -0.26068  -0.95042  -1.94544
H    -2.14885   0.58448  -1.46981
H    -2.95508  -0.77113   0.69566
H    -2.04920  -1.89395  -0.38378
H    -0.76316  -1.61641   1.98271
H    -0.45863   0.98012   2.47829
H    -1.31140   2.33726   0.34830
H     0.48341  -2.12450  -0.10016
