9

C         -4.11547        0.44427        0.12464
H         -3.02554        0.50585        0.30523
H         -4.36900       -0.57071       -0.24739
H         -4.40694        1.20156       -0.62986
H         -4.64921        0.63747        1.07668
C         -0.53078        1.03501        0.46130
H         -0.45586        2.12588        0.64913
H          0.05968        0.76108       -0.43609
H         -0.16734        0.47323        1.34587
