14

N          1.78269       -0.34538        0.16004
C          0.34419       -0.37363        0.30179
C         -0.12049        0.95264        0.88952
O         -1.51839        0.94200        0.96654
H          0.04698       -1.18076        0.98842
H          2.05108        0.24628       -0.62248
H          2.18159        0.08638        0.99431
H          0.36775        1.07246        1.87484
H          0.25397        1.76006        0.22864
H         -1.82114        1.82563        1.19237
C         -0.36575       -0.58353       -1.02790
O         -1.36137        0.01925       -1.34232
O          0.22532       -1.47865       -1.81810
H          0.76143       -2.04747       -1.24290
